.386
.model flat, c
.data
	N dd 15
	X dd 10
	p db 3
	k dd 1
	a dd 0
	b dd 0
	suma dd 0
	.stack 4096
.code
	main proc
		mov cl,p
		mov eax,N
		mov ebx,X
		mov ecx,k
		shl esi,cl;shifta za p mesta ulevo za maskiranje visih bitova

		;da li se misli na zadrzavanje p bitova ili 8 bitova(gornjh/donjih jer je p 8b)????

		uslov:
		cmp ecx,eax
			ja kraj
			;mov edx,ecx;k se prebacuje u drugi registar,ecx se koristi za inkrementiranje k
			push ecx
			;push ecx;nepotrebno
			mov edx,0;anuliranje visih bitova
			or dl,cl;zadrzavaju se nizi bitovi
			add edx,ebx;brojilac
			push eax
			mov eax,edx;zbog deljenja
			pop eax
			ror ecx,cl; potrebno je p puta da se rotiraju i da predju na p najvisih bitova,ne moze ovako
			;movsx ecx,cl
			;mov edi,0;
			;add edi,ecx
			;ror ecx,cl
			;or edi,ecx
			pop ecx
			push ebx
			sub ebx,edi;imenilac
			pop ebx
			div ebx;opet deljenje
			inc ecx
			add suma,eax
			jmp uslov

		kraj:
		nop


main endp
end main
